Version 4
SHEET 1 1216 680
WIRE 256 -48 -144 -48
WIRE 704 -48 256 -48
WIRE 384 64 272 64
WIRE 512 64 384 64
WIRE 272 112 272 80
WIRE 512 112 512 80
WIRE 464 144 448 144
WIRE 272 160 96 160
WIRE 96 192 96 160
WIRE 512 224 512 160
WIRE 656 224 512 224
WIRE 96 240 96 192
WIRE 256 240 96 240
WIRE 96 272 96 240
WIRE 96 272 0 272
WIRE 208 272 96 272
WIRE 512 272 512 224
WIRE 512 272 400 272
WIRE 608 272 512 272
WIRE 256 288 256 240
WIRE 656 288 656 224
WIRE 608 320 608 288
WIRE 0 352 0 320
WIRE 208 352 208 320
WIRE 400 352 400 320
WIRE 96 368 0 368
WIRE 208 368 96 368
WIRE 496 368 400 368
WIRE 608 368 496 368
WIRE -144 416 -144 -48
WIRE 320 416 320 80
WIRE 688 416 320 416
WIRE 704 416 704 -48
WIRE 448 432 448 144
WIRE 448 432 160 432
WIRE 96 448 96 368
WIRE 272 448 96 448
WIRE 352 448 352 352
WIRE 496 448 496 368
WIRE 496 448 352 448
WIRE -160 464 -192 464
WIRE -80 464 -112 464
WIRE 160 464 160 432
WIRE 160 464 -64 464
WIRE 320 464 320 416
WIRE 688 464 688 416
WIRE 736 464 704 464
WIRE 848 464 784 464
WIRE 272 528 272 496
WIRE 448 528 448 432
WIRE 496 528 496 496
WIRE 384 544 272 544
WIRE 496 544 384 544
FLAG 384 -16 0
FLAG 384 544 0
FLAG 96 192 OUT
IOPIN 96 192 Out
FLAG -192 544 0
FLAG 848 544 0
FLAG 256 -128 0
SYMBOL pmos4 320 160 R180
SYMATTR InstName M1
SYMBOL pmos4 464 64 R0
SYMATTR InstName M3
SYMBOL pmos4 -48 272 R0
SYMATTR InstName M4
SYMBOL nmos4 256 368 R180
SYMATTR InstName M5
SYMBOL nmos4 320 544 R180
SYMATTR InstName M6
SYMBOL nmos4 448 448 R0
SYMATTR InstName M7
SYMBOL pmos4 352 272 R0
SYMATTR InstName M8
SYMBOL nmos4 656 368 R180
SYMATTR InstName M9
SYMBOL voltage 384 80 R180
WINDOW 0 24 96 Left 2
WINDOW 3 24 16 Left 2
WINDOW 123 0 0 Left 0
WINDOW 39 0 0 Left 0
SYMATTR InstName V1
SYMATTR Value 5
SYMBOL nmos4 -64 416 R90
SYMATTR InstName M2
SYMBOL nmos4 784 416 R90
SYMATTR InstName M10
SYMBOL voltage -192 448 R0
WINDOW 123 0 0 Left 0
WINDOW 39 0 0 Left 0
SYMATTR InstName V2
SYMATTR Value PULSE(0 5 0 5n 5n 20m 40m)
SYMBOL voltage 848 448 R0
WINDOW 123 0 0 Left 0
WINDOW 39 0 0 Left 0
SYMATTR InstName V3
SYMATTR Value PULSE(0 5 0 5n 5n 10m 20m)
SYMBOL voltage 256 -32 R180
WINDOW 0 24 96 Left 2
WINDOW 3 -10 186 Left 2
WINDOW 123 0 0 Left 0
WINDOW 39 0 0 Left 0
SYMATTR InstName READ
SYMATTR Value PULSE(0 5 0 5n 5n 40m 80m)
TEXT -224 568 Left 2 !.tran 180m
